Circuit: * C:\Users\user\Desktop\Sistemas de Controle 2\projeto\Draft1.asc

V3: Missing value, assumed 0V @ DC
Direct Newton iteration for .op point succeeded.
Ignoring empty pin current: Ix(u1:1)
Ignoring empty pin current: Ix(u1:2)
Ignoring empty pin current: Ix(u2:1)
Ignoring empty pin current: Ix(u2:2)
Ignoring empty pin current: Ix(u3:1)
Ignoring empty pin current: Ix(u3:2)
Ignoring empty pin current: Ix(u1:1)
Ignoring empty pin current: Ix(u1:2)
Ignoring empty pin current: Ix(u2:1)
Ignoring empty pin current: Ix(u2:2)
Ignoring empty pin current: Ix(u3:1)
Ignoring empty pin current: Ix(u3:2)

Date: Sun Dec 11 15:30:51 2022
Total elapsed time: 0.195 seconds.

tnom = 27
temp = 27
method = modified trap
totiter = 2706
traniter = 2692
tranpoints = 1347
accept = 1289
rejected = 58
matrix size = 34
fillins = 20
solver = Normal
Thread vector: 22.2/11.4[3] 5.3/3.6[3] 3.5/2.4[3] 0.5/1.1[1]  2592/500
Matrix Compiler1: 3.66 KB object code size  1.3/0.8/[0.5]
Matrix Compiler2: 3.28 KB object code size  0.5/0.7/[0.4]

