Circuit: * C:\Users\user\Desktop\Sistemas de Controle 2\projeto\simulação circuito 1.asc

Direct Newton iteration for .op point succeeded.
Ignoring empty pin current: Ix(u1:1)
Ignoring empty pin current: Ix(u1:2)
Ignoring empty pin current: Ix(u5:1)
Ignoring empty pin current: Ix(u5:2)
Ignoring empty pin current: Ix(u6:1)
Ignoring empty pin current: Ix(u6:2)
Ignoring empty pin current: Ix(u1:1)
Ignoring empty pin current: Ix(u1:2)
Ignoring empty pin current: Ix(u5:1)
Ignoring empty pin current: Ix(u5:2)
Ignoring empty pin current: Ix(u6:1)
Ignoring empty pin current: Ix(u6:2)
Heightened Def Con from 15.2554 to 15.2554

Date: Sun Dec 11 17:48:18 2022
Total elapsed time: 55.100 seconds.

tnom = 27
temp = 27
method = modified trap
totiter = 3504597
traniter = 3504583
tranpoints = 438681
accept = 268675
rejected = 170007
matrix size = 34
fillins = 20
solver = Normal
Thread vector: 22.5/10.2[3] 5.8/3.8[3] 3.4/2.8[3] 0.4/1.2[1]  2592/500
Matrix Compiler1: 3.66 KB object code size  1.5/1.0/[0.5]
Matrix Compiler2: 3.28 KB object code size  0.6/1.2/[0.3]

